Version 4
SHEET 1 1816 788
WIRE -64 224 -464 224
WIRE 192 224 0 224
WIRE 304 224 192 224
WIRE 368 224 304 224
WIRE 608 224 432 224
WIRE 640 224 608 224
WIRE -64 256 -224 256
WIRE 192 256 192 224
WIRE 368 256 336 256
WIRE -464 272 -464 224
WIRE 304 352 304 224
WIRE 368 352 304 352
WIRE 608 352 432 352
WIRE 640 352 608 352
WIRE -224 368 -224 256
WIRE 192 384 192 336
WIRE 336 384 336 256
WIRE 336 384 192 384
WIRE 368 384 336 384
WIRE -464 400 -464 352
WIRE 192 432 192 384
WIRE -224 496 -224 448
WIRE 192 576 192 496
FLAG -224 496 0
FLAG -464 400 0
FLAG 192 576 0
FLAG 608 224 out1
FLAG 608 352 out2
FLAG 1072 560 0
FLAG 1760 560 0
SYMBOL Digital\\diffschmitt -64 176 R0
WINDOW 3 -43 -25 Left 2
SYMATTR Value vt=0 vh=0 vhigh=5 vlow=0
SYMATTR InstName A1
SYMBOL voltage -464 256 R0
WINDOW 123 0 0 Left 0
WINDOW 39 0 0 Left 0
SYMATTR InstName V1
SYMATTR Value SINE(0.5 0.5 10k)
SYMBOL voltage -224 352 R0
WINDOW 123 0 0 Left 0
WINDOW 39 0 0 Left 0
SYMATTR InstName V2
SYMATTR Value PULSE(0 1 0 2.5u 2.5u 0 5u)
SYMBOL Digital\\or 400 176 R0
WINDOW 3 -29 -23 Left 2
SYMATTR InstName A2
SYMATTR Value vhigh=5
SYMBOL Digital\\and 400 304 R0
WINDOW 3 -29 -1 Left 2
SYMATTR InstName A3
SYMATTR Value vhigh=5
SYMBOL res 176 240 R0
SYMATTR InstName R1
SYMATTR Value 750
SYMBOL cap 176 432 R0
SYMATTR InstName C1
SYMATTR Value 51p
SYMBOL cap 704 208 R90
WINDOW 0 0 32 VBottom 2
WINDOW 3 32 32 VTop 2
SYMATTR InstName C2
SYMBOL cap 704 336 R90
WINDOW 0 0 32 VBottom 2
WINDOW 3 32 32 VTop 2
SYMATTR InstName C3
SYMBOL nmos 1008 272 R0
SYMATTR InstName M1
SYMBOL nmos 1808 272 M0
SYMATTR InstName M2
SYMBOL pmos 1008 96 R0
SYMATTR InstName M3
SYMBOL pmos 1808 96 M0
SYMATTR InstName M4
SYMBOL ind 1200 240 R270
WINDOW 0 32 56 VTop 2
WINDOW 3 5 56 VBottom 2
SYMATTR InstName L1
SYMBOL ind 1488 240 R270
WINDOW 0 32 56 VTop 2
WINDOW 3 5 56 VBottom 2
SYMATTR InstName L2
SYMBOL cap 1296 288 R0
SYMATTR InstName C4
SYMBOL cap 1488 288 R0
SYMATTR InstName C5
SYMBOL diode 1200 -160 R0
SYMATTR InstName D1
SYMBOL diode 1136 -176 R0
SYMATTR InstName D2
SYMBOL diode 992 -272 R0
SYMATTR InstName D3
SYMBOL diode 1024 -144 R0
SYMATTR InstName D4
SYMBOL voltage 368 -352 R0
SYMATTR InstName V3
SYMBOL voltage 208 -368 R0
SYMATTR InstName V4
SYMBOL voltage 0 -368 R0
SYMATTR InstName V5
SYMBOL voltage -192 -336 R0
SYMATTR InstName V6
TEXT 0 -40 Left 2 !.tran 20u
